Version 4
SHEET 1 1664 904
WIRE 688 96 688 80
WIRE 688 224 688 176
WIRE 752 224 688 224
WIRE 800 224 752 224
WIRE 1168 240 1168 224
WIRE 688 272 688 224
WIRE 640 352 528 352
WIRE 1168 368 1168 320
WIRE 1232 368 1168 368
WIRE 1264 368 1232 368
WIRE 1168 400 1168 368
WIRE 144 432 144 400
WIRE 400 432 400 400
WIRE 688 464 688 368
WIRE 400 528 400 512
WIRE 528 528 528 352
WIRE 528 528 400 528
WIRE 560 528 528 528
WIRE 1168 528 1168 480
WIRE 400 544 400 528
WIRE 672 560 624 560
WIRE 560 608 560 528
WIRE 624 608 624 560
WIRE 624 608 560 608
WIRE 656 608 624 608
WIRE 800 608 752 608
WIRE 944 608 880 608
WIRE 1024 608 944 608
WIRE 1120 608 1024 608
WIRE 144 624 144 512
WIRE 256 624 144 624
WIRE 352 624 256 624
WIRE 944 624 944 608
WIRE 1024 624 1024 608
WIRE 0 672 0 608
WIRE 144 672 144 624
WIRE 400 672 400 640
WIRE 1168 688 1168 624
WIRE 944 720 944 688
WIRE 1024 720 1024 704
WIRE 0 784 0 752
WIRE 144 784 144 752
FLAG 0 784 0
FLAG 144 784 0
FLAG 0 608 3V3
FLAG 1232 368 nBOOT
FLAG 1168 224 3V3
FLAG 944 720 0
FLAG 1024 720 0
FLAG 144 400 3V3
FLAG 1168 688 0
FLAG 256 624 SWITCH
FLAG 400 672 0
FLAG 400 400 3V3
FLAG 688 80 3V3
FLAG 688 464 0
FLAG 752 224 nRESET
SYMBOL voltage 144 656 R0
WINDOW 123 0 0 Left 0
WINDOW 39 0 0 Left 0
WINDOW 3 54 102 Left 2
SYMATTR Value PULSE(3.3 0 0.6 0.001 0.001 1.5 5)
SYMATTR InstName V1
SYMBOL voltage 0 656 R0
WINDOW 123 0 0 Left 0
WINDOW 39 0 0 Left 0
WINDOW 3 -390 106 Left 2
SYMATTR Value PULSE(0 3.3 0.5 0.001 0.001 10)
SYMATTR InstName V2
SYMBOL res 1152 384 R0
SYMATTR InstName R2
SYMATTR Value 1K
SYMBOL res 1152 224 R0
SYMATTR InstName R3
SYMATTR Value 10K
SYMBOL cap 928 624 R0
SYMATTR InstName C1
SYMATTR Value 10µ
SYMBOL res 1008 608 R0
SYMATTR InstName R6
SYMATTR Value 100K
SYMBOL res 128 416 R0
SYMATTR InstName R8
SYMATTR Value 5K1
SYMBOL res 384 416 R0
SYMATTR InstName R5
SYMATTR Value 5K1
SYMBOL res 672 80 R0
SYMATTR InstName R10
SYMATTR Value 5K1
SYMBOL nmos 1120 528 R0
SYMATTR InstName M1
SYMATTR Value 2N7002
SYMBOL nmos 752 560 R90
WINDOW 0 64 57 VRight 2
WINDOW 3 90 5 VRight 2
SYMATTR InstName M2
SYMATTR Value 2N7002
SYMBOL nmos 352 544 R0
SYMATTR InstName M3
SYMATTR Value 2N7002
SYMBOL nmos 640 272 R0
SYMATTR InstName M5
SYMATTR Value 2N7002
SYMBOL res 896 592 R90
WINDOW 0 0 56 VBottom 2
WINDOW 3 32 56 VTop 2
SYMATTR InstName R4
SYMATTR Value 51K
TEXT 200 696 Left 2 ;RESET Button
TEXT 192 784 Left 2 !.tran 10
TEXT 1184 640 Left 2 ;RUN button replacement
TEXT 600 536 Left 2 ;Body Diode >|
TEXT 936 576 Left 2 ;RC Delay
TEXT -392 688 Left 2 ;Power Supply
TEXT -392 720 Left 2 ;Turns on 500ms after sim
TEXT 200 720 Left 2 ;Symulates open at power up, then pressed
